---
# Input information for: 90m_12mps_twr.sum
# This summary file was generated by TurbSim (v1.06.00, 21-Sep-2012) on 07-Jan-2014 at 12:50:45.
Meteorological Boundary Conditions:
  IEC Extreme Turbulence Model (ETM) "c" parameter [m/s]: N/A
  IEC Kaimal spectral model: IECKAI
  IEC Normal Turbulence Model: NTM
  'IEC standard: IEC 61400-1 Ed. 3: 2005': '1'
  IEC turbulence characteristic: B
  Jet height [m]: N/A
  Power law exponent: '0.200'
  Reference height [m]: '90.000'
  Reference wind speed [m/s]: '12.000'
  Surface roughness length [m]: '0.030'
  Wind profile type: PL
Runtime Options:
  Clockwise rotation when looking downwind?: T
  IEC turbulence models scaled to exact specified standard deviation: 0 -  NONE
  Output AeroDyn FF files?: T
  Output AeroDyn HH files?: F
  Output BLADED FF files?: F
  Output binary HH turbulence parameters?: F
  Output coherent turbulence time step file?: F
  Output formatted FF files?: F
  Output formatted turbulence parameters?: F
  Output tower data?: T
  'Random seed #1': '13428'
  Type of random number generator: RANLUX
Turbine/Model Specifications:
  Analysis time [seconds]: '630.000'
  Grid height [m]: '145.000'
  Grid width [m]: '145.000'
  Horizontal flow angle [degrees]: '0.000'
  Horizontal grid-point matrix dimension: '31'
  Hub height [m]: '90.000'
  Time step [seconds]: '0.050'
  Usable output time [seconds]: '60.000'
  Vertical flow angle [degrees]: '0.000'
  Vertical grid-point matrix dimension: '31'
