
 **************************************************************************************************
 OpenFAST

 Copyright (C)  National Renewable Energy Laboratory
 Copyright (C)  Envision Energy USA LTD

 This program is licensed under Apache License Version 2.0 and comes with ABSOLUTELY NO WARRANTY.
 See the "LICENSE" file distributed with this software for details.
 **************************************************************************************************

 OpenFAST-v2.1.0-130-g2d9230df-dirty
 Compile Info:
  - Architecture: 64 bit
  - Precision: double
  - Date: Jun 25 2019
  - Time: 13:30:43
 Execution Info:
  - Date: 07/17/2019
  - Time: 11:41:28-0600

 OpenFAST input file heading:
     FAST certification Test #06: AOC 15/50 with many DOFs with gen start loss of grid and
     tip-brake shutdown. Many parameters are pure fiction.


 FAST_InitializeAll:FAST_Init:FAST_ReadPrimaryFile:Invalid AbortLevel specified in FAST input
 file. Valid entries are "WARNING", "SEVERE", or "FATAL".

 FAST encountered an error during module initialization.
  Simulation error level: FATAL ERROR

  Aborting OpenFAST.

