
 **************************************************************************************************
 OpenFAST

 Copyright (C)  National Renewable Energy Laboratory
 Copyright (C)  Envision Energy USA LTD

 This program is licensed under Apache License Version 2.0 and comes with ABSOLUTELY NO WARRANTY.
 See the "LICENSE" file distributed with this software for details.
 **************************************************************************************************

 OpenFAST-v2.1.0-130-g2d9230df-dirty
 Compile Info:
  - Architecture: 64 bit
  - Precision: double
  - Date: Jun 25 2019
  - Time: 13:30:43
 Execution Info:
  - Date: 07/16/2019
  - Time: 13:29:47-0600

 OpenFAST input file heading:
     FAST Certification Test #01: AWT-27CR2 with many DOFs with fixed yaw error and steady wind


 FAST_InitializeAll:FAST_Init:FAST_ReadPrimaryFile:Invalid numerical input for file "AOC.inp"
 occurred while trying to read LinTimes.

 FAST encountered an error during module initialization.
  Simulation error level: FATAL ERROR

  Aborting OpenFAST.

